data/state_estimation/SE_PT2040_Su/state_estimation_PT2040_Su_t19.csv
bus,vm_pu,va_degree,p_mw,q_mvar
1,1.041561,0.130660,-0.963657,-66.041040
2,1.042803,0.242140,-1.038544,-60.139616
3,1.044091,0.178845,-0.975008,-27.117335
4,1.042503,-0.054307,-1.063529,-43.167733
5,1.019328,0.233995,-31.565622,-26.488564
6,1.023246,0.238881,-1.019777,-7.415754
7,1.048129,-0.080169,-1.032716,100.408386
8,1.010360,0.055874,-0.999087,0.008551
9,1.029378,-0.090363,-1.045866,0.097512
10,1.040831,-0.086210,-1.034945,0.048242
11,1.020654,-0.108513,-5.741140,-0.217498
12,1.009357,-0.115667,-0.997258,0.075225
13,1.026546,-0.096727,-9.628281,-1.927866
14,1.030940,-0.088131,-0.993596,0.093728
15,1.045409,-0.060067,-0.992564,-0.029752
16,1.010406,0.218749,-1.022254,0.010630
17,1.027970,0.088827,-0.988411,-0.062207
18,1.013465,0.027533,-0.970052,-0.011010
19,1.015360,-0.153432,-0.956876,0.006361
20,1.020077,-0.110308,-1.017400,-0.021657
21,1.023053,0.081878,-0.893537,-0.041488
22,1.028811,-0.075134,99.554845,-32.779426
23,1.000400,-0.137227,-0.994395,0.019786
24,1.022916,0.237387,-1.014642,-0.043144
25,1.016671,0.054077,-31.676732,0.099566
26,1.042251,-0.075446,-5.710731,-0.252236
27,1.037962,-0.078480,-5.761295,-0.139129
28,1.030520,-0.080915,-4.445013,0.565873
29,1.021517,-0.090975,-0.981047,0.003949
30,1.033032,0.093376,29.916925,17.201411
31,1.017798,0.267593,-1.038924,0.020669
32,1.029784,0.089564,-1.022235,0.039741
33,1.035442,0.096037,-1.036750,-0.108185
34,1.022203,-0.095163,-1.012480,-0.048579
35,1.001847,0.160926,-1.009951,-0.027122
36,1.017760,0.057459,-1.041814,0.030402
37,1.020308,-0.056683,-1.065355,-0.022672
38,1.024366,0.117413,-0.961265,-0.025488
39,1.022483,0.134953,-1.048174,-0.099662
40,1.024453,0.239005,-0.866168,0.039751
41,1.023100,0.103949,-1.028318,-0.006430
42,1.021664,0.220803,-1.065319,0.021925
43,1.019186,-0.065912,-1.084091,0.063611
44,1.023488,0.115632,-0.965428,0.052452
45,1.021167,0.016919,-0.949210,0.026808
46,1.020238,-0.021324,-0.948363,-0.129405
47,1.029174,0.197063,-0.983046,0.032185
48,1.020287,0.112161,-1.039392,0.101746
49,1.027326,0.120307,-0.960919,-0.000963
50,1.020790,-0.055043,-31.668422,-0.011158
51,1.027667,0.186020,-0.929227,0.032548
52,1.021717,0.069256,-1.006676,-0.006824
53,1.021658,0.099625,-1.020647,0.040675
54,1.039427,0.309344,-0.982122,0.039329
55,1.017606,-0.067439,-0.930166,-0.039165
56,1.020088,-0.066516,-1.004510,-0.000290
57,1.026860,0.122351,-0.945622,0.064932
58,1.018833,-0.068920,-0.987976,0.048861
59,1.019738,-0.059344,-1.039804,0.040804
60,1.027318,0.139901,-0.912485,-0.054765
61,1.029564,0.198270,88.993101,21.900016
62,1.019400,0.289329,-0.970076,0.018001
63,1.037634,0.283853,-0.980933,-0.041920
64,1.016130,-0.001365,-0.920538,0.015755
65,1.023945,0.259601,-0.932269,-0.006290
66,1.028496,0.152166,-0.938793,-0.002203
67,1.026175,0.139916,-3.753658,1.011231
68,1.022338,0.099934,-1.048608,-0.019351
69,1.024280,0.125125,-0.995840,0.036958
70,1.026653,0.153865,-0.929483,-0.026740
71,1.023287,0.134815,-0.954368,-0.046372
72,1.013492,0.278443,-1.024818,0.015944
73,1.030850,0.267838,-1.030300,-0.093249
74,1.020467,0.001648,-1.042127,0.018145
75,1.029461,0.250201,-1.011357,0.001469
76,1.018130,-0.067407,-0.925876,-0.043276
77,1.032383,0.278769,-0.891850,-0.059371
78,1.020390,0.188076,-0.917056,-0.031748
79,1.030168,0.252325,-0.907154,0.017045
80,1.044810,-0.050878,-0.947497,0.032248
81,1.038756,0.110166,-1.028148,0.037089
82,1.041200,-0.016797,-1.063396,-0.000425
83,1.044319,0.092638,-0.972581,0.020053
84,1.042666,-0.042730,-0.995330,0.072779
85,1.037292,0.059046,-1.042963,-0.015127
86,1.043956,-0.043773,-0.956885,0.018793
87,1.048269,-0.029579,-0.978814,-0.004333
88,1.039835,0.114841,-1.013035,0.069585
89,1.042625,-0.023419,-1.042813,0.104536
90,1.041184,0.173672,-1.046046,0.028050
91,1.044593,0.115816,-0.905939,-0.038352
92,1.035488,0.109317,-0.951105,0.027834
93,1.039665,0.115822,-0.989820,0.036130
94,1.039672,0.114072,-0.895576,0.004472
95,1.045976,0.104642,-1.004898,-0.003649
96,1.042819,0.130809,-0.933547,0.009148
97,1.043266,-0.041070,-1.001389,0.005445
98,1.043492,0.179307,-1.060194,0.084131
99,1.049759,0.154721,-0.944092,0.029182
100,1.045922,0.000050,-31.606605,0.070450
101,1.039365,0.118367,-0.948065,-0.002284
102,1.030906,-0.064031,-1.030134,-0.026356
103,1.042421,0.155009,-0.994150,-0.052022
104,1.040682,0.115313,-1.010808,0.026780
105,1.044282,-0.054357,-0.973222,0.011777
106,1.044283,0.242450,-0.969640,0.011240
107,1.035768,-0.078998,-0.930008,-0.071618
108,1.009020,0.071688,-15.430668,-6.735636
109,1.016321,-0.020112,-255.600761,-28.887448
110,1.019377,-0.122000,-220.235338,-10.916751
111,1.019482,0.063713,-161.704714,-18.866919
112,1.027075,-0.116729,-114.875415,-8.209432
113,1.030907,-0.142930,-127.200060,-0.441979
114,1.021849,0.125667,-31.603870,-13.786795
115,1.003519,0.227198,-32.195704,10.553392
116,1.011810,0.024946,-360.960892,-54.158749
117,1.016138,-0.137679,-60.265803,-8.035525
118,1.014679,0.223861,11.980598,-18.708267
119,1.031994,-0.072686,-205.673291,-39.028417
120,1.021105,0.062453,-231.915757,5.457644
121,1.000895,-0.165366,-194.135674,-38.996911
122,1.030391,0.058321,-125.914074,-47.512840
123,1.026731,-0.137575,-180.106071,-24.188662
124,1.020111,-0.028837,-151.286152,5.332248
125,1.018258,-0.066710,-154.971436,-16.696854
126,1.031979,-0.082281,-127.371782,-23.075338
127,1.021941,0.276102,262.713192,-5.285334
128,1.029341,0.066220,-161.246883,-39.046777
129,1.022613,0.036187,-244.827932,-11.119722
130,1.014830,0.049973,-312.907532,-62.478772
131,1.026943,-0.080035,-193.324593,-27.667112
132,1.011796,0.049562,-41.528724,-1.930524
133,1.005733,-0.035696,-222.099533,42.778062
134,1.020011,0.035686,-198.275253,6.181284
135,1.017014,-0.114848,-220.843283,-33.380117
136,1.019651,-0.137689,-252.664740,-31.127550
137,1.023020,0.030669,-176.233374,-6.573994
138,1.020413,0.099337,-148.548818,-30.640661
139,1.014893,-0.149044,-277.686546,-6.181092
140,1.022646,-0.206004,-96.893913,-4.603166
141,1.021469,-0.162284,-113.385838,-12.130256
142,1.019107,0.009176,-153.582544,-7.608068
143,1.002204,-0.116165,-106.036163,-19.936580
144,1.019298,0.098723,-84.847482,-4.125039
145,1.023883,0.071179,-223.647539,29.680281
146,1.015319,-0.074943,-0.840280,-0.371742
147,1.023022,-0.103751,-68.988501,-13.946416
148,1.008799,0.236191,-1.018268,-0.039297
149,0.993709,-0.211042,-236.110283,-40.823801
150,1.017363,0.208015,-38.467279,-0.395367
151,1.015022,-0.023376,-250.093306,-31.404333
152,1.014940,0.258698,-84.108107,0.046763
153,1.024544,0.277489,-7.841990,-0.921220
154,1.012279,-0.055258,-119.412818,-11.928786
155,1.014565,0.342450,246.418645,-1.483370
156,1.021124,0.137558,-30.204929,4.421414
157,1.016566,0.030601,-134.879069,-3.202920
158,1.024418,0.096742,-51.475331,-11.250813
159,1.016698,-0.073428,38.482388,8.206461
160,1.027187,0.215460,136.967659,-3.394080
161,1.019862,0.222604,185.417765,15.808438
162,1.015588,0.273876,11.378119,8.874668
163,1.027284,0.083113,-29.421615,7.956096
164,1.022382,-0.062557,-21.154717,-10.048901
165,1.010379,0.276968,36.475450,-10.494176
166,1.014137,0.062420,124.692457,-18.294233
167,1.010653,0.240154,-30.782517,5.817941
168,1.020078,-0.085345,-160.879725,-47.141701
169,1.020443,-0.047133,100.157200,22.732163
170,1.018870,0.171831,-34.111048,16.744131
171,1.005781,0.111984,-61.465014,-7.847636
172,1.008286,0.236931,-34.026364,-3.277469
173,1.034561,0.098973,70.981169,-12.263978
174,1.034660,0.098878,20.002473,-3.620406
175,1.032176,0.087612,53.009072,3.747798
176,1.029674,0.076928,20.986629,27.368856
177,1.035634,0.095910,-0.993651,0.063624
178,1.009066,0.229624,28.047923,-12.183822
179,1.036618,0.097175,30.226713,14.335865
180,1.028767,-0.092970,-0.960785,-0.082247
181,1.028165,0.244519,64.961405,19.903738
182,1.035842,0.096457,-0.978555,31.835695
183,1.048447,-0.042918,117.142832,10.533859
184,1.033069,0.091893,-1.005659,-0.126518
185,1.034768,-0.082608,-1.063238,-0.027580
186,1.023489,-0.124941,-0.927335,-0.110656
187,1.018076,0.057676,25.531177,34.470664
188,1.019021,0.057765,25.455491,-2.370366
189,1.018127,0.057133,25.515884,-2.481074
190,1.022048,0.104605,-1.003952,-0.014896
191,1.041042,0.319367,183.511706,-12.959672
192,1.037110,0.299311,119.008392,-10.855852
193,1.028999,0.124508,-0.947932,-0.005300
194,1.033585,0.212632,119.027882,8.630628
195,1.027230,0.144049,-1.027656,37.459808
196,1.024133,0.239286,92.047185,-23.597838
197,1.029634,0.184374,-1.113583,-0.007945
198,1.025179,0.238398,-1.020791,6.714771
199,1.023071,0.070387,-1.019866,-0.042642
200,1.039161,0.308758,0.802071,8.959297
201,1.039788,0.309156,31.501730,3.676686
202,1.040030,0.309226,31.661140,3.679615
203,1.040108,0.309339,121.507336,-8.379623
204,1.018379,-0.065355,-0.990965,0.015143
205,1.018024,-0.065659,-1.018023,0.062932
206,1.026823,0.139125,34.036263,6.252323
207,1.027481,0.139428,34.005556,5.247127
208,1.024446,0.115481,-1.032628,0.070755
209,1.025107,0.119439,-0.924562,-0.090291
210,1.024665,0.115901,-0.972519,0.029628
211,1.025519,0.124272,-0.890916,-0.021841
212,1.020184,0.316424,-0.982451,0.051805
213,1.020384,-0.056211,-0.887899,0.033610
214,1.019640,-0.054982,-1.062157,-0.023016
215,1.019755,-0.056013,-0.944786,0.030618
216,1.020236,-0.055877,-1.013265,-0.019520
217,1.021203,-0.057808,-0.961598,-0.029469
218,1.029284,0.151919,99.484698,24.352946
219,1.018627,-0.068351,-0.945354,0.015152
220,1.031402,0.131914,592.952147,245.027465
221,1.032452,0.130165,-0.969035,0.007582
222,1.021202,-0.021272,234.241029,90.653337
223,1.023594,0.222072,-1.018863,-0.006479
224,1.029230,0.206406,-1.030349,0.058371
225,1.044535,0.247003,94.553665,-0.051911
226,1.047653,-0.033174,-0.961913,0.024131
227,1.044355,-0.054083,-0.847581,-34.607404
228,1.043917,-0.054198,-1.037142,11.573056
229,1.046078,0.115521,-0.916870,100.584956
230,1.045343,0.116177,-0.953286,23.331913
231,1.042389,0.173468,-0.983921,7.932062
232,1.043378,0.128492,156.540183,4.620297
233,1.043106,0.129279,156.617751,5.169961
234,1.048267,-0.024897,245.578900,-5.881742
235,1.049787,-0.026146,225.074936,-3.903206
236,1.048936,-0.025631,225.203999,-3.870227
237,1.049279,0.155552,163.248095,18.707168
238,1.049322,0.155542,163.314989,18.627502
239,1.046152,-0.000285,234.235585,23.678843
240,1.045810,-0.000205,234.284231,75.237493
241,1.045618,0.108960,246.818814,16.548368
242,1.046815,0.108075,246.770595,21.932815
243,1.049875,0.155853,250.105976,24.819530
244,1.048588,0.155652,250.105168,18.561761
245,1.019249,-0.090063,-42.143603,-10.896557
246,1.027705,-0.094393,-27.064147,-6.876032
247,1.023272,-0.124960,-5.794203,0.809766
248,1.020065,0.251745,-3.709727,1.941260
249,1.027754,-0.094947,-9.212298,-0.833977
250,1.046285,-0.061155,-17.174022,27.344895
251,1.028545,0.123977,104.812386,-2.061853
252,1.028460,0.341526,166.652171,-14.287914
253,1.026470,0.329801,112.822381,-4.267925
254,1.035597,0.205216,238.509043,-21.106080
255,1.047733,-0.064798,-36.757037,30.367046
256,1.021019,0.103164,-117.739518,-18.750828
257,1.022303,0.240005,-5.127107,1.693704
258,1.022836,0.147216,-4.406076,1.624404
259,1.022360,0.274018,-4.392181,2.472867
260,0.991637,-0.089283,-145.142559,-31.160865
261,1.016709,0.284119,-2.320833,1.896469
262,1.024364,0.247363,220.467300,-28.196112
263,1.019666,0.329503,122.477143,-19.376345
264,1.029042,0.213162,254.429176,-26.764003
265,1.024164,0.223542,100.526463,6.137388
266,1.019396,0.317076,129.015256,-17.178249
267,1.029459,0.250590,166.111129,-36.545599
268,1.041390,0.178207,144.175979,20.757737
269,1.005133,0.235200,-0.919126,0.075639
270,1.004599,0.236176,-0.948856,0.034154
271,1.005177,0.244185,-0.973926,-0.070825
272,1.007885,0.264018,-0.940667,0.035599
273,1.019196,0.052610,29.096212,6.815794
274,1.019740,0.051219,-0.909319,0.148940
275,1.018311,0.049796,-1.001675,-0.032796
276,1.014336,0.033462,-0.989268,-0.068878
277,1.014022,0.031911,-0.996411,0.069072
278,1.012957,0.030636,-0.983086,-0.060610
279,1.011744,0.025121,-1.030068,0.006819
280,1.015368,0.050723,-1.005303,0.067634
281,1.017118,0.050868,-0.994410,-0.022023
282,1.018271,0.053068,-1.035382,-0.037316
283,1.012409,0.048080,-1.037898,0.079551
284,1.019720,0.064432,-1.044946,-0.124268
285,1.021016,0.064801,-1.025820,-0.117831
286,1.022796,0.070753,-0.974924,-0.019203
287,1.006217,-0.032700,-1.005797,-0.002639
288,1.006147,-0.032524,-0.984881,0.076583
289,1.007545,-0.024849,-0.940413,-0.011704
290,1.008136,-0.018451,-1.067457,-0.001426
291,1.009356,-0.017812,-0.991230,-0.073963
292,1.009209,-0.016813,-0.905563,-0.028802
293,1.011681,-0.002957,24.959263,-7.561624
294,1.009630,0.236928,-1.011751,0.002473
295,1.009935,0.238919,-1.020590,-0.029786
296,1.009117,0.239258,-1.074607,0.078345
297,1.010594,0.239641,-0.930401,0.064455
298,1.009287,0.262077,-0.988648,-0.053616
299,1.009145,0.260724,-0.904969,-0.103615
300,1.009381,0.261663,-0.956784,-0.015316
301,1.008953,0.252050,-1.017886,-0.136553
302,1.008790,0.245160,-0.925878,0.016016
303,1.008454,0.239211,-0.907202,0.074778
304,1.008273,0.239010,-0.956480,0.061490
